REMARK  Flexibility Score: inf
REMARK  Active torsions [ 1 ] -> [ 1 ]
ROOT
ATOM      1  N1  LIG L   1      66.636  41.442  -2.464  1.00  0.00    -0.067 N 
ATOM      2  C1  LIG L   1      65.758  40.826  -1.419  1.00  0.00     0.222 C 
ATOM      3  C2  LIG L   1      64.500  41.663  -1.384  1.00  0.00     0.040 C 
ATOM      4  C3  LIG L   1      64.782  42.934  -2.162  1.00  0.00     0.030 C 
ATOM      5  C4  LIG L   1      66.061  42.699  -2.934  1.00  0.00     0.235 C 
ATOM      6  C5  LIG L   1      67.953  41.785  -1.898  1.00  0.00     0.270 C 
ATOM      7  H1  LIG L   1      66.721  40.770  -3.213  1.00  0.00     0.280 HD
ENDROOT
BRANCH    2    8
ATOM      8  C6  LIG L   1      65.465  39.398  -1.758  1.00  0.00    -0.010 C 
ATOM      9  C7  LIG L   1      65.410  38.944  -3.087  1.00  0.00     0.125 C 
ATOM     10  C8  LIG L   1      65.278  38.464  -0.753  1.00  0.00     0.012 C 
ATOM     11  N2  LIG L   1      65.181  37.651  -3.405  1.00  0.00    -0.273 N 
ATOM     12  C9  LIG L   1      65.028  37.131  -1.090  1.00  0.00     0.020 C 
ATOM     13 C10  LIG L   1      64.991  36.740  -2.434  1.00  0.00     0.116 C 
ENDBRANCH    2    8
TORSDOF 1
