REMARK  1 active torsions:
REMARK  status: ('A' for Active; 'I' for Inactive)
REMARK    1  A    between atoms: C2_3  and  C6_8 
ROOT
HETATM    1  N2  NCT E1206      66.636  41.442  -2.464  1.00 22.84    -0.067 N 
HETATM    2  C6  NCT E1206      65.758  40.826  -1.419  1.00 23.21     0.222 C 
HETATM    3  C7  NCT E1206      64.500  41.663  -1.384  1.00 24.64     0.040 C 
HETATM    4  C8  NCT E1206      64.782  42.934  -2.162  1.00 22.89     0.030 C 
HETATM    5  C9  NCT E1206      66.061  42.699  -2.934  1.00 23.46     0.235 C 
HETATM    6  C10 NCT E1206      67.953  41.785  -1.898  1.00 20.24     0.270 C 
HETATM    7  H01 NCT E1206      66.721  40.770  -3.213  1.00 22.84     0.280 HD
HETATM    8  W   WAT X  99      66.889  39.439  -4.696  1.00 10.00     0.000 W
ENDROOT
BRANCH 2 9
HETATM    9  C2  NCT E1206      65.465  39.398  -1.758  1.00 22.63    -0.010 A 
HETATM   10  C1  NCT E1206      65.410  38.944  -3.087  1.00 24.23     0.125 A 
HETATM   11  N1  NCT E1206      65.181  37.651  -3.405  1.00 23.15    -0.273 NA
HETATM   12  W   WAT X  99      65.092  36.798  -6.280  1.00 10.00     0.000 W
HETATM   13  C5  NCT E1206      64.991  36.740  -2.434  1.00 23.65     0.116 A 
HETATM   14  C4  NCT E1206      65.028  37.131  -1.090  1.00 23.20     0.020 A 
HETATM   15  C3  NCT E1206      65.278  38.464  -0.753  1.00 22.92     0.012 A 
ENDBRANCH 2 9
TORSDOF 1
