REMARK  1 active torsions:
REMARK  status: ('A' for Active; 'I' for Inactive)
REMARK    1  A    between atoms: C2_3  and  C6_8 
ROOT
HETATM    1  N2  NCT E1206      84.478  99.855 -15.974  1.00 22.84    -0.067 N 
HETATM    2  C6  NCT E1206      84.119  98.984 -17.138  1.00 23.21     0.222 C 
HETATM    3  C7  NCT E1206      85.325  98.109 -17.392  1.00 24.64     0.040 C 
HETATM    4  C8  NCT E1206      86.480  98.691 -16.600  1.00 22.89     0.030 C 
HETATM    5  C9  NCT E1206      85.885  99.683 -15.625  1.00 23.46     0.235 C 
HETATM    6  C10 NCT E1206      84.317 101.278 -16.323  1.00 20.24     0.270 C 
HETATM    7  H01 NCT E1206      83.872  99.593 -15.210  1.00 22.84     0.280 HD
ENDROOT
BRANCH   2   8
HETATM    8  C2  NCT E1206      82.901  98.172 -16.827  1.00 22.63    -0.010 A 
HETATM    9  C1  NCT E1206      82.855  97.284 -15.739  1.00 24.23     0.125 A 
HETATM   10  N1  NCT E1206      81.749  96.572 -15.427  1.00 23.15    -0.273 NA
HETATM   11  C5  NCT E1206      80.635  96.694 -16.170  1.00 23.65     0.116 A 
HETATM   12  C4  NCT E1206      80.619  97.559 -17.271  1.00 23.20     0.020 A 
HETATM   13  C3  NCT E1206      81.754  98.309 -17.592  1.00 22.92     0.012 A 
ENDBRANCH   2   8
TORSDOF 1
