MODEL        3
USER    Run = 3
USER    DPF = ligand_HYDRO_protein.dpf
USER
USER    Estimated Free Energy of Binding    =   -8.74 kcal/mol  [=(1)+(2)+(3)-(4)]
USER    Estimated Inhibition Constant, Ki   =  393.91 nM (nanomolar)  [Temperature = 298.15 K]
USER
USER    (1) Final Intermolecular Energy     =   -9.01 kcal/mol
USER        vdW + Hbond + desolv Energy     =   -7.90 kcal/mol
USER        Electrostatic Energy            =   -1.11 kcal/mol
USER    (2) Final Total Internal Energy     =   -0.25 kcal/mol
USER    (3) Torsional Free Energy           =   +0.27 kcal/mol
USER    (4) Unbound System's Energy  [=(2)] =   -0.25 kcal/mol
USER
USER
USER    NEWDPF move ligand_HYDRO.pdbqt
USER    NEWDPF about 65.716301 39.778900 -2.598500
USER    NEWDPF tran0 83.207838 98.356069 -15.749166
USER    NEWDPF quaternion0 -0.583438 -0.811153 0.037707 -0.014440
USER    NEWDPF axisangle0 -0.583499 -0.811238 0.037711 -178.345265
USER    NEWDPF quat0 -0.583499 -0.811238 0.037711 -178.345265
USER    NEWDPF dihe0 -45.72
USER  keepresnum = 1
USER
REMARK  1 active torsions:
REMARK  status: ('A' for Active; 'I' for Inactive)
REMARK    1  A    between atoms: C2_3  and  C6_8
USER                              x       y       z     vdW  Elec       q    Type
USER                           _______ _______ _______ _____ _____    ______ ____
ROOT
ATOM      1  N2  NCT E1206      84.478  99.748 -16.032  1.00 10.00           N
ATOM      2  C6  NCT E1206      84.105  98.675 -17.007  1.00 10.00           C
ATOM      3  C7  NCT E1206      85.295  97.746 -17.082  1.00 10.00           C
ATOM      4  C8  NCT E1206      86.459  98.450 -16.411  1.00 10.00           C
ATOM      5  C9  NCT E1206      85.881  99.621 -15.650  1.00 10.00           C
ATOM      6  C10 NCT E1206      84.344 101.079 -16.650  1.00 10.00           C
ATOM      7  H01 NCT E1206      83.866  99.649 -15.235  1.00 10.00           HD
ENDROOT
BRANCH 2 9
ATOM      9  C2  NCT E1206      82.871  97.960 -16.552  1.00 10.00           A
ATOM     10  C1  NCT E1206      82.896  97.024 -15.504  1.00 10.00           A
ATOM     11  N1  NCT E1206      81.784  96.399 -15.061  1.00 10.00           NA
REMARK  STRONG water ( score: -0.91 )
ATOM     12  W   WAT X  99      81.960  94.422 -12.810  1.00 30.00           W
ATOM     13  C5  NCT E1206      80.592  96.658 -15.627  1.00 10.00           A
ATOM     14  C4  NCT E1206      80.502  97.577 -16.680  1.00 10.00           A
ATOM     15  C3  NCT E1206      81.646  98.238 -17.134  1.00 10.00           A
ENDBRANCH 2 9
TORSDOF 1
TER
ENDMDL
