# created with PyMOL 2.2.0
@<TRIPOS>MOLECULE
BACE_4
90 92 1                 
SMALL
USER_CHARGES
@<TRIPOS>ATOM
1	   N	2.126	-0.781	0.744	N.pl3	1	UNL1	-0.305	
2	   N	4.814	-0.256	-1.167	N.pl3	1	UNL1	-0.338	
3	   N	7.201	-2.740	-0.102	N.4	1	UNL1	0.375	
4	   C	7.721	2.741	-2.365	C.3	1	UNL1	-0.054	
5	   C	6.298	2.260	-2.702	C.3	1	UNL1	-0.048	
6	   C	5.207	2.946	-1.810	C.3	1	UNL1	-0.048	
7	   C	5.537	3.041	-0.296	C.3	1	UNL1	-0.052	
8	   C	4.366	3.521	0.584	C.3	1	UNL1	-0.051	
9	   C	4.868	3.716	2.032	C.3	1	UNL1	-0.043	
10	   C	3.782	3.990	3.093	C.3	1	UNL1	-0.011	
11	   C	3.119	2.720	3.667	C.3	1	UNL1	0.077	
12	   C	2.324	0.642	2.871	C.3	1	UNL1	0.240	
13	   C	2.833	0.069	1.572	C.2	1	UNL1	0.172	
14	   C	0.931	-1.483	1.209	C.3	1	UNL1	0.070	
15	   C	2.422	-0.941	-0.699	C.3	1	UNL1	0.155	
16	   C	1.881	0.276	-1.464	C.3	1	UNL1	0.025	
17	   C	3.861	-1.238	-1.135	C.2	1	UNL1	0.159	
18	   C	6.118	-0.368	-1.806	C.3	1	UNL1	0.056	
19	   C	6.205	0.700	-2.941	C.3	1	UNL1	-0.003	
20	   C	7.299	-0.318	-0.803	C.3	1	UNL1	0.043	
21	   C	7.188	-1.339	0.350	C.3	1	UNL1	-0.099	
22	   C	7.151	-3.643	1.065	C.3	1	UNL1	-0.090	
23	   C	7.376	-5.092	0.624	C.3	1	UNL1	-0.034	
24	   C	8.417	-4.389	1.485	C.3	1	UNL1	-0.034	
25	   C	5.934	-3.562	1.961	C.2	1	UNL1	-0.092	
26	   C	6.066	-3.059	3.264	C.2	1	UNL1	-0.040	
27	   C	4.952	-2.945	4.127	C.2	1	UNL1	-0.080	
28	   C	3.692	-3.355	3.630	C.2	1	UNL1	-0.052	
29	   C	3.561	-3.854	2.333	C.2	1	UNL1	-0.057	
30	   C	4.672	-3.955	1.499	C.2	1	UNL1	-0.048	
31	   C	5.151	-2.386	5.552	C.3	1	UNL1	-0.041	
32	   C	5.724	-0.955	5.473	C.3	1	UNL1	-0.037	
33	   C	3.834	-2.321	6.362	C.3	1	UNL1	-0.037	
34	   C	6.133	-3.293	6.326	C.3	1	UNL1	-0.037	
35	   O	2.331	2.056	2.701	O.3	1	UNL1	-0.443	
36	   O	3.933	0.466	1.253	O.2	1	UNL1	-0.372	
37	   O	4.104	-2.342	-1.600	O.2	1	UNL1	-0.377	
38	   O	8.504	-0.513	-1.501	O.3	1	UNL1	-0.488	
39	 H01	8.377	2.558	-3.216	 H	1	UNL1	0.000	
40	 H02	7.702	3.808	-2.145	 H	1	UNL1	0.000	
41	 H03	8.093	2.197	-1.497	 H	1	UNL1	0.000	
42	 H04	6.034	2.628	-3.693	 H	1	UNL1	0.000	
43	 H05	4.323	2.312	-1.882	 H	1	UNL1	0.000	
44	 H06	5.055	3.958	-2.184	 H	1	UNL1	0.000	
45	 H07	6.325	3.787	-0.197	 H	1	UNL1	0.000	
46	 H08	5.841	2.053	0.050	 H	1	UNL1	0.000	
47	 H09	3.568	2.779	0.569	 H	1	UNL1	0.000	
48	 H10	3.983	4.466	0.199	 H	1	UNL1	0.000	
49	 H11	5.489	4.612	2.009	 H	1	UNL1	0.000	
50	 H12	5.401	2.812	2.325	 H	1	UNL1	0.000	
51	 H13	2.994	4.554	2.594	 H	1	UNL1	0.000	
52	 H14	4.239	4.539	3.916	 H	1	UNL1	0.000	
53	 H15	2.467	3.020	4.487	 H	1	UNL1	0.000	
54	 H16	3.898	2.041	4.015	 H	1	UNL1	0.000	
55	 H17	2.944	0.337	3.714	 H	1	UNL1	0.000	
56	 H18	1.313	0.288	3.072	 H	1	UNL1	0.000	
57	 H19	0.106	-1.288	0.524	 H	1	UNL1	0.000	
58	 H20	1.129	-2.554	1.244	 H	1	UNL1	0.000	
59	 H21	0.666	-1.129	2.205	 H	1	UNL1	0.000	
60	 H22	1.913	-1.871	-0.951	 H	1	UNL1	0.000	
61	 H23	0.963	0.624	-0.990	 H	1	UNL1	0.000	
62	 H24	2.623	1.075	-1.448	 H	1	UNL1	0.000	
63	 H25	1.672	-0.006	-2.496	 H	1	UNL1	0.000	
64	 H26	6.215	-1.357	-2.253	 H	1	UNL1	0.000	
65	 H27	7.203	0.498	-3.330	 H	1	UNL1	0.000	
66	 H28	5.316	0.550	-3.553	 H	1	UNL1	0.000	
67	 H29	7.272	0.666	-0.334	 H	1	UNL1	0.000	
68	 H30	8.062	-1.200	0.986	 H	1	UNL1	0.000	
69	 H31	6.256	-1.157	0.884	 H	1	UNL1	0.000	
70	 H32	7.392	-5.612	-0.334	 H	1	UNL1	0.000	
71	 H33	6.768	-5.892	1.047	 H	1	UNL1	0.000	
72	 H34	8.902	-4.606	2.437	 H	1	UNL1	0.000	
73	 H35	9.381	-4.111	1.058	 H	1	UNL1	0.000	
74	 H36	7.049	-2.749	3.619	 H	1	UNL1	0.000	
75	 H37	2.812	-3.280	4.269	 H	1	UNL1	0.000	
76	 H38	2.582	-4.167	1.970	 H	1	UNL1	0.000	
77	 H39	4.559	-4.340	0.486	 H	1	UNL1	0.000	
78	 H40	6.690	-0.978	4.968	 H	1	UNL1	0.000	
79	 H41	5.038	-0.318	4.915	 H	1	UNL1	0.000	
80	 H42	5.851	-0.558	6.480	 H	1	UNL1	0.000	
81	 H43	3.030	-2.779	5.785	 H	1	UNL1	0.000	
82	 H44	3.958	-2.859	7.302	 H	1	UNL1	0.000	
83	 H45	3.585	-1.280	6.568	 H	1	UNL1	0.000	
84	 H46	7.025	-2.723	6.587	 H	1	UNL1	0.000	
85	 H47	5.654	-3.654	7.236	 H	1	UNL1	0.000	
86	 H48	6.414	-4.141	5.702	 H	1	UNL1	0.000	
87	   H	4.557	0.664	-0.835	 H	1	UNL1	0.076	
88	   H	9.226	-0.094	-0.964	 H	1	UNL1	0.076	
89	   H	8.063	-2.907	-0.672	 H	1	UNL1	-0.154	
90	   H	6.368	-2.932	-0.700	 H	1	UNL1	-0.154	
@<TRIPOS>BOND
1 1 13 1
2 1 14 1
3 2 17 1
4 2 87 1
5 3 21 1
6 3 22 1
7 4 39 1
8 4 40 1
9 4 41 1
10 4 5 1
11 5 6 1
12 5 42 1
13 6 7 1
14 6 43 1
15 6 44 1
16 7 8 1
17 7 45 1
18 7 46 1
19 8 9 1
20 8 47 1
21 8 48 1
22 9 10 1
23 9 49 1
24 9 50 1
25 10 11 1
26 10 51 1
27 10 52 1
28 11 53 1
29 11 54 1
30 12 55 1
31 12 56 1
32 12 13 1
33 14 57 1
34 14 58 1
35 14 59 1
36 1 15 1
37 15 60 1
38 15 16 1
39 16 61 1
40 16 62 1
41 16 63 1
42 15 17 1
43 2 18 1
44 18 20 1
45 18 64 1
46 5 19 1
47 18 19 1
48 19 65 1
49 19 66 1
50 20 21 1
51 20 67 1
52 21 68 1
53 21 69 1
54 22 24 1
55 22 25 1
56 22 23 1
57 23 24 1
58 23 70 1
59 23 71 1
60 24 72 1
61 24 73 1
62 25 26 1
63 26 27 2
64 26 74 1
65 27 31 1
66 27 28 1
67 28 75 1
68 28 29 2
69 29 76 1
70 25 30 2
71 29 30 1
72 30 77 1
73 31 33 1
74 31 34 1
75 31 32 1
76 32 78 1
77 32 79 1
78 32 80 1
79 33 81 1
80 33 82 1
81 33 83 1
82 34 84 1
83 34 85 1
84 34 86 1
85 11 35 1
86 12 35 1
87 13 36 2
88 17 37 2
89 20 38 1
90 38 88 1
91 3 89 1
92 3 90 1
@<TRIPOS>SUBSTRUCTURE
1	UNL1	1	GROUP	1 ****	UNL
