REMARK  Flexibility Score: 60.00
REMARK  Glue-bond: [ 6 ] :: [ 7 ]
REMARK  Active torsions [ 7 ] -> [ 21 ]
ROOT
ATOM      1  C1  LIG L   1       3.861  -1.238  -1.135  1.00  0.00     0.159 C 
ATOM      2  O1  LIG L   1       4.104  -2.342  -1.600  1.00  0.00    -0.377 OA
ATOM      3  N1  LIG L   1       4.814  -0.256  -1.167  1.00  0.00    -0.338 N 
ATOM      4  H1  LIG L   1       4.557   0.664  -0.835  1.00  0.00     0.076 HD
ENDROOT
BRANCH    3    5
ATOM      5  C2  LIG L   1       6.118  -0.368  -1.806  1.00  0.00     0.056 C 
BRANCH    5    6
ATOM      6  C3  LIG L   1       6.205   0.700  -2.941  1.00  0.00    -0.003 C 
BRANCH    6    7
ATOM      7  C4  LIG L   1       6.298   2.260  -2.702  1.00  0.00    -0.048 C 
ATOM      8  C5  LIG L   1       7.721   2.741  -2.365  1.00  0.00    -0.054 C 
BRANCH    7    9
ATOM      9  C6  LIG L   1       5.207   2.946  -1.810  1.00  0.00    -0.048 C 
BRANCH    9   10
ATOM     10  C7  LIG L   1       5.537   3.041  -0.296  1.00  0.00    -0.052 C1
BRANCH   10   11
ATOM     11  C8  LIG L   1       4.366   3.521   0.584  1.00  0.00    -0.051 C1
BRANCH   11   12
ATOM     12  C9  LIG L   1       4.868   3.716   2.032  1.00  0.00    -0.043 CG
ATOM     13  *1  LIG L   1       3.782   3.990   3.093  1.00  0.00     0.000 G0
ENDBRANCH   11   12
ENDBRANCH   10   11
ENDBRANCH    9   10
ENDBRANCH    7    9
ENDBRANCH    6    7
ENDBRANCH    5    6
BRANCH    5   14
ATOM     14 C10  LIG L   1       7.299  -0.318  -0.803  1.00  0.00     0.043 C 
BRANCH   14   15
ATOM     15  O2  LIG L   1       8.504  -0.513  -1.501  1.00  0.00    -0.488 OA
ATOM     16  H2  LIG L   1       9.226  -0.094  -0.964  1.00  0.00     0.076 HD
ENDBRANCH   14   15
BRANCH   14   17
ATOM     17 C11  LIG L   1       7.188  -1.339   0.350  1.00  0.00    -0.099 C 
BRANCH   17   18
ATOM     18  N2  LIG L   1       7.201  -2.740  -0.102  1.00  0.00     0.375 N 
ATOM     19  H3  LIG L   1       6.368  -2.932  -0.700  1.00  0.00    -0.154 HD
ATOM     20  H4  LIG L   1       8.063  -2.907  -0.672  1.00  0.00    -0.154 HD
BRANCH   18   21
ATOM     21 C12  LIG L   1       7.151  -3.643   1.065  1.00  0.00    -0.090 C 
ATOM     22 C13  LIG L   1       7.376  -5.092   0.624  1.00  0.00    -0.034 C 
ATOM     23 C14  LIG L   1       8.417  -4.389   1.485  1.00  0.00    -0.034 C 
BRANCH   21   24
ATOM     24 C15  LIG L   1       5.934  -3.562   1.961  1.00  0.00    -0.092 C 
ATOM     25 C16  LIG L   1       4.672  -3.955   1.499  1.00  0.00    -0.048 C 
ATOM     26 C17  LIG L   1       6.066  -3.059   3.264  1.00  0.00    -0.040 C 
ATOM     27 C18  LIG L   1       3.561  -3.854   2.333  1.00  0.00    -0.057 C 
ATOM     28 C19  LIG L   1       4.952  -2.945   4.127  1.00  0.00    -0.080 C 
ATOM     29 C20  LIG L   1       3.692  -3.355   3.630  1.00  0.00    -0.052 C 
BRANCH   28   30
ATOM     30 C21  LIG L   1       5.151  -2.386   5.552  1.00  0.00    -0.041 C 
ATOM     31 C22  LIG L   1       5.724  -0.955   5.473  1.00  0.00    -0.037 C 
ATOM     32 C23  LIG L   1       6.133  -3.293   6.326  1.00  0.00    -0.037 C 
ATOM     33 C24  LIG L   1       3.834  -2.321   6.362  1.00  0.00    -0.037 C 
ENDBRANCH   28   30
ENDBRANCH   21   24
ENDBRANCH   18   21
ENDBRANCH   17   18
ENDBRANCH   14   17
ENDBRANCH    5   14
ENDBRANCH    3    5
BRANCH    1   34
ATOM     34 C25  LIG L   1       2.422  -0.941  -0.699  1.00  0.00     0.155 C 
ATOM     35 C26  LIG L   1       1.881   0.276  -1.464  1.00  0.00     0.025 C 
BRANCH   34   36
ATOM     36  N3  LIG L   1       2.126  -0.781   0.744  1.00  0.00    -0.305 N 
ATOM     37 C27  LIG L   1       0.931  -1.483   1.209  1.00  0.00     0.070 C 
BRANCH   36   38
ATOM     38 C28  LIG L   1       2.833   0.069   1.572  1.00  0.00     0.172 C 
ATOM     39  O3  LIG L   1       3.933   0.466   1.253  1.00  0.00    -0.372 OA
BRANCH   38   40
ATOM     40 C29  LIG L   1       2.324   0.642   2.871  1.00  0.00     0.240 C 
BRANCH   40   41
ATOM     41  O4  LIG L   1       2.331   2.056   2.701  1.00  0.00    -0.443 O1
BRANCH   41   42
ATOM     42 C30  LIG L   1       3.119   2.720   3.667  1.00  0.00     0.077 C1
BRANCH   42   43
ATOM     43 C31  LIG L   1       3.782   3.990   3.093  1.00  0.00    -0.011 CG
ATOM     44  *2  LIG L   1       4.868   3.716   2.032  1.00  0.00     0.000 G0
ENDBRANCH   42   43
ENDBRANCH   41   42
ENDBRANCH   40   41
ENDBRANCH   38   40
ENDBRANCH   36   38
ENDBRANCH   34   36
ENDBRANCH    1   34
TORSDOF 7
