REMARK  Name = BACE_4
REMARK  13 active torsions:
REMARK  status: ('A' for Active; 'I' for Inactive)
REMARK    1  A    between atoms: C_1  and  C_2
REMARK    2  A    between atoms: N_13  and  C_14
REMARK    3  A    between atoms: C_15  and  C_16
REMARK    4  A    between atoms: C_20  and  C_22
REMARK    5  A    between atoms: C_22  and  O_23
REMARK    6  A    between atoms: C_22  and  C_24
REMARK    7  A    between atoms: C_24  and  N_25
REMARK    8  A    between atoms: N_25  and  C_26
REMARK    9  A    between atoms: C_26  and  C_29
REMARK   10  A    between atoms: C_31  and  C_35
REMARK   11  A    between atoms: C_35  and  C_36
REMARK   12  A    between atoms: C_35  and  C_37
REMARK   13  A    between atoms: C_35  and  C_38
REMARK                            x       y       z     vdW  Elec       q    Type
REMARK                         _______ _______ _______ _____ _____    ______ ____
ROOT
ATOM      1  C   UNL     1       7.721   2.741  -2.365  0.00  0.00    -0.054 C 
ATOM      2  C   UNL     1       6.298   2.260  -2.702  0.00  0.00    -0.048 C 
ATOM      3  C   UNL     1       5.207   2.946  -1.810  0.00  0.00    -0.048 C 
ATOM      4  C   UNL     1       5.537   3.041  -0.296  0.00  0.00    -0.052 C 
ATOM      5  C   UNL     1       4.366   3.521   0.584  0.00  0.00    -0.051 C 
ATOM      6  C   UNL     1       4.868   3.716   2.032  0.00  0.00    -0.043 C 
ATOM      7  C   UNL     1       3.782   3.990   3.093  0.00  0.00    -0.011 C 
ATOM      8  C   UNL     1       3.119   2.720   3.667  0.00  0.00    +0.077 C 
ATOM      9  O   UNL     1       2.331   2.056   2.701  0.00  0.00    -0.443 OA
ATOM     10  C   UNL     1       2.324   0.642   2.871  0.00  0.00    +0.240 C 
ATOM     11  C   UNL     1       2.833   0.069   1.572  0.00  0.00    +0.172 C 
ATOM     12  O   UNL     1       3.933   0.466   1.253  0.00  0.00    -0.372 OA
ATOM     13  N   UNL     1       2.126  -0.781   0.744  0.00  0.00    -0.305 N 
ATOM     14  C   UNL     1       0.931  -1.483   1.209  0.00  0.00    +0.070 C 
ATOM     15  C   UNL     1       2.422  -0.941  -0.699  0.00  0.00    +0.155 C 
ATOM     16  C   UNL     1       1.881   0.276  -1.464  0.00  0.00    +0.025 C 
ATOM     17  C   UNL     1       3.861  -1.238  -1.135  0.00  0.00    +0.159 C 
ATOM     18  O   UNL     1       4.104  -2.342  -1.600  0.00  0.00    -0.377 OA
ATOM     19  N   UNL     1       4.814  -0.256  -1.167  0.00  0.00    -0.338 N 
ATOM     20  C   UNL     1       6.118  -0.368  -1.806  0.00  0.00    +0.056 C 
ATOM     21  C   UNL     1       6.205   0.700  -2.941  0.00  0.00    -0.003 C 
ATOM     22  H   UNL     1       4.557   0.664  -0.835  0.00  0.00    +0.076 HD
ENDROOT
BRANCH  20  23
ATOM     23  C   UNL     1       7.299  -0.318  -0.803  0.00  0.00    +0.043 C 
BRANCH  23  24
ATOM     24  O   UNL     1       8.504  -0.513  -1.501  0.00  0.00    -0.488 OA
ATOM     25  H   UNL     1       9.226  -0.094  -0.964  0.00  0.00    +0.076 HD
ENDBRANCH  23  24
BRANCH  23  26
ATOM     26  C   UNL     1       7.188  -1.339   0.350  0.00  0.00    -0.099 C 
BRANCH  26  27
ATOM     27  N   UNL     1       7.201  -2.740  -0.102  0.00  0.00    +0.375 N 
ATOM     28  H   UNL     1       8.063  -2.907  -0.672  0.00  0.00    -0.154 HD
ATOM     29  H   UNL     1       6.368  -2.932  -0.700  0.00  0.00    -0.154 HD
BRANCH  27  30
ATOM     30  C   UNL     1       7.151  -3.643   1.065  0.00  0.00    -0.090 C 
ATOM     31  C   UNL     1       7.376  -5.092   0.624  0.00  0.00    -0.034 C 
ATOM     32  C   UNL     1       8.417  -4.389   1.485  0.00  0.00    -0.034 C 
BRANCH  30  33
ATOM     33  C   UNL     1       5.934  -3.562   1.961  0.00  0.00    -0.092 A 
ATOM     34  C   UNL     1       6.066  -3.059   3.264  0.00  0.00    -0.040 A 
ATOM     35  C   UNL     1       4.952  -2.945   4.127  0.00  0.00    -0.080 A 
ATOM     36  C   UNL     1       3.692  -3.355   3.630  0.00  0.00    -0.052 A 
ATOM     37  C   UNL     1       3.561  -3.854   2.333  0.00  0.00    -0.057 A 
ATOM     38  C   UNL     1       4.672  -3.955   1.499  0.00  0.00    -0.048 A 
BRANCH  35  39
ATOM     39  C   UNL     1       5.151  -2.386   5.552  0.00  0.00    -0.041 C 
ATOM     40  C   UNL     1       5.724  -0.955   5.473  0.00  0.00    -0.037 C 
ATOM     41  C   UNL     1       3.834  -2.321   6.362  0.00  0.00    -0.037 C 
ATOM     42  C   UNL     1       6.133  -3.293   6.326  0.00  0.00    -0.037 C 
ENDBRANCH  35  39
ENDBRANCH  30  33
ENDBRANCH  27  30
ENDBRANCH  26  27
ENDBRANCH  23  26
ENDBRANCH  20  23
TORSDOF 7
