
     RDKit          3D

 19 18  0  0  0  0  0  0  0  0999 V2000
   -2.9811   -0.2886   -0.2996 C   0  0  0  0  0  0  0  0  0  0  0  0
   -1.6043    0.2526   -0.6737 C   0  0  0  0  0  0  0  0  0  0  0  0
   -0.5257   -0.2684    0.2829 C   0  0  0  0  0  0  0  0  0  0  0  0
    0.8560    0.2774   -0.0963 C   0  0  0  0  0  0  0  0  0  0  0  0
    1.9337   -0.2430    0.8593 C   0  0  0  0  0  0  0  0  0  0  0  0
    3.2755    0.3000    0.4815 C   0  0  0  0  0  0  0  0  0  0  0  0
    4.0021   -0.3204   -0.3386 O   0  0  0  0  0  0  0  0  0  0  0  0
    3.7035    1.5167    0.9973 O   0  0  0  0  0  1  0  0  0  0  0  0
   -3.7402    0.1048   -1.0081 H   0  0  0  0  0  0  0  0  0  0  0  0
   -2.9871   -1.3982   -0.3526 H   0  0  0  0  0  0  0  0  0  0  0  0
   -3.2552    0.0313    0.7283 H   0  0  0  0  0  0  0  0  0  0  0  0
   -1.6329    1.3635   -0.6375 H   0  0  0  0  0  0  0  0  0  0  0  0
   -1.3659   -0.0599   -1.7139 H   0  0  0  0  0  0  0  0  0  0  0  0
   -0.5055   -1.3801    0.2440 H   0  0  0  0  0  0  0  0  0  0  0  0
   -0.7728    0.0448    1.3214 H   0  0  0  0  0  0  0  0  0  0  0  0
    1.1032   -0.0359   -1.1350 H   0  0  0  0  0  0  0  0  0  0  0  0
    0.8359    1.3893   -0.0575 H   0  0  0  0  0  0  0  0  0  0  0  0
    1.9633   -1.3543    0.8277 H   0  0  0  0  0  0  0  0  0  0  0  0
    1.6973    0.0684    1.8999 H   0  0  0  0  0  0  0  0  0  0  0  0
  1  2  1  0
  2  3  1  0
  3  4  1  0
  4  5  1  0
  5  6  1  0
  6  7  2  0
  6  8  1  0
  1  9  1  0
  1 10  1  0
  1 11  1  0
  2 12  1  0
  2 13  1  0
  3 14  1  0
  3 15  1  0
  4 16  1  0
  4 17  1  0
  5 18  1  0
  5 19  1  0
M  CHG  1   8  -1
M  END
