@<TRIPOS>MOLECULE
*****
 12 12 0 0 0
SMALL
GASTEIGER

@<TRIPOS>ATOM
      1 N1         -1.3633   -0.0734   -0.0082 N.ar    0  0          -0.2865
      2 C1         -0.7595    1.1485   -0.0105 C.ar    0  0           0.0322
      3 C2          0.6348    1.2445   -0.0053 C.ar    0  0          -0.0284
      4 C3          1.3999    0.0772    0.0024 C.ar    0  0          -0.0572
      5 C4          0.7662   -1.1662    0.0047 C.ar    0  0          -0.0284
      6 C5         -0.6303   -1.2223   -0.0007 C.ar    0  0           0.0322
      7 O1         -2.6911   -0.1457   -0.0133 O.3     0  0          -0.5708
      8 H1         -1.3576    2.0515   -0.0165 H       0  0           0.1211
      9 H2          1.1165    2.2137   -0.0071 H       0  0           0.0695
     10 H3          2.4807    0.1362    0.0066 H       0  0           0.0504
     11 H4          1.3503   -2.0774    0.0107 H       0  0           0.0695
     12 H5         -1.1268   -2.1850    0.0011 H       0  0           0.1211
@<TRIPOS>BOND
     1     1     2   ar
     2     1     7    1
     3     2     3   ar
     4     3     4   ar
     5     4     5   ar
     6     5     6   ar
     7     6     1   ar
     8     2     8    1
     9     3     9    1
    10     4    10    1
    11     5    11    1
    12     6    12    1

