@<TRIPOS>MOLECULE
aspirin
 20 20 0 0 0
SMALL
GASTEIGER

@<TRIPOS>ATOM
      1 O1          2.7496   -2.1018    1.5781 O.2     0  0          -0.3386
      2 C1          2.3378   -2.0037    0.4337 C.2     0  0           0.2218
      3 C2          0.9005   -2.2969    0.1445 C.3     0  0           0.0422
      4 O2          3.1593   -1.6724   -0.6020 O.3     0  0          -0.4661
      5 C3          4.4723   -1.2943   -0.6200 C.ar    0  0           0.1166
      6 C4          5.1940   -0.9819    0.5578 C.ar    0  0          -0.0284
      7 C5          6.5342   -0.5989    0.4887 C.ar    0  0          -0.0826
      8 C6          7.1787   -0.5156   -0.7408 C.ar    0  0          -0.0872
      9 C7          6.4879   -0.8107   -1.9139 C.ar    0  0          -0.0363
     10 C8          5.1339   -1.1997   -1.8741 C.ar    0  0           0.1315
     11 C9          4.4301   -1.5050   -3.1563 C.2     0  0           0.2813
     12 O3          5.0248   -1.4155   -4.2192 O.co2   0  0          -0.3196
     13 O4          3.1358   -1.8798   -3.1656 O.co2   0  0          -0.4424
     14 H1          0.3550   -2.5641    1.0749 H       0  0           0.0516
     15 H2          0.8339   -3.1464   -0.5670 H       0  0           0.0516
     16 H3          0.4234   -1.4034   -0.3089 H       0  0           0.0516
     17 H4          4.7452   -1.0175    1.5340 H       0  0           0.0628
     18 H5          7.0751   -0.3628    1.3962 H       0  0           0.0438
     19 H6          8.2183   -0.2175   -0.7865 H       0  0           0.0421
     20 H7          7.0123   -0.7345   -2.8583 H       0  0           0.0545
@<TRIPOS>BOND
     1     1     2    2
     2     2     3    1
     3     2     4    1
     4     4     5    1
     5     5     6   ar
     6     6     7   ar
     7     7     8   ar
     8     8     9   ar
     9     9    10   ar
    10     5    10   ar
    11    10    11    1
    12    11    12   ar
    13    11    13   ar
    14     3    14    1
    15     3    15    1
    16     3    16    1
    17     6    17    1
    18     7    18    1
    19     8    19    1
    20     9    20    1

