@<TRIPOS>MOLECULE
*****
 4 3 0 0 0
SMALL
GASTEIGER

@<TRIPOS>ATOM
      1 C1          1.1179   -0.0246    0.0113 C.2     0  0           0.1929
      2 O1          0.4898   -0.8012   -0.6883 O.co2   0  0          -0.3521
      3 O2          2.4632   -0.0421   -0.0045 O.co2   0  0          -0.4652
      4 H1          0.5922    0.6801    0.6461 H       0  0           0.1787
@<TRIPOS>BOND
     1     1     2   ar
     2     1     3   ar
     3     1     4    1

