@<TRIPOS>MOLECULE
*****
 27 28 0 0 0
SMALL
GASTEIGER

@<TRIPOS>ATOM
      1  N1 1      79.4345   94.7969   31.7450 N.ar  1206  NCT1206    -0.2630
      2  C1 1      80.6215   94.4145   32.2872 C.ar  1206  NCT1206     0.0292
      3  C2 1      81.6915   94.0370   31.4584 C.ar  1206  NCT1206    -0.0428
      4  C3 1      81.4990   94.0666   30.0663 C.ar  1206  NCT1206    -0.0573
      5  C4 1      80.2704   94.4632   29.5360 C.ar  1206  NCT1206    -0.0434
      6  C5 1      79.2385   94.8289   30.4008 C.ar  1206  NCT1206     0.0276
      7  N2 1      83.4163   92.2243   31.7008 N.4   1206  NCT1206     0.3824
      8  C6 1      83.0160   93.6103   32.0629 C.3   1206  NCT1206    -0.0509
      9  C7 1      84.1911   94.4956   31.6569 C.3   1206  NCT1206    -0.0629
     10  C8 1      85.3360   93.6133   32.1019 C.3   1206  NCT1206    -0.0692
     11  C9 1      84.8871   92.2777   31.5262 C.3   1206  NCT1206    -0.0902
     12  C101      83.0180   91.2549   32.7351 C.3   1206  NCT1206    -0.1024
     13 H1         80.7281   94.4052   33.3641 H     1206  NCT1206     0.0832
     14 H2         82.2962   93.7834   29.3911 H     1206  NCT1206     0.0621
     15 H3         80.1195   94.4868   28.4645 H     1206  NCT1206     0.0633
     16 H4         78.2811   95.1384   30.0036 H     1206  NCT1206     0.0829
     17 H5         82.9913   91.9212   30.7920 H     1206  NCT1206    -0.0814
     18 H6         82.9564   93.6978   33.1764 H     1206  NCT1206     0.0143
     19 H7         84.1789   95.5061   32.1185 H     1206  NCT1206     0.0252
     20 H8         84.2377   94.6034   30.5494 H     1206  NCT1206     0.0252
     21 H9         85.3372   93.5513   33.2144 H     1206  NCT1206     0.0247
     22 H10        86.3405   93.9408   31.7593 H     1206  NCT1206     0.0247
     23 H11        85.1069   92.3084   30.4323 H     1206  NCT1206     0.0059
     24 H12        85.4414   91.4081   31.9448 H     1206  NCT1206     0.0059
     25 H13        83.4940   91.4904   33.7130 H     1206  NCT1206     0.0024
     26 H14        83.3218   90.2281   32.4352 H     1206  NCT1206     0.0024
     27 H15        81.9132   91.2615   32.8604 H     1206  NCT1206     0.0024
@<TRIPOS>BOND
     1     1     2   ar
     2     1     6   ar
     3     2     3   ar
     4     3     4   ar
     5     3     8    1
     6     4     5   ar
     7     5     6   ar
     8     7     8    1
     9     7    11    1
    10     7    12    1
    11     8     9    1
    12     9    10    1
    13    10    11    1
    14     2    13    1
    15     4    14    1
    16     5    15    1
    17     6    16    1
    18     7    17    1
    19     8    18    1
    20     9    19    1
    21     9    20    1
    22    10    21    1
    23    10    22    1
    24    11    23    1
    25    11    24    1
    26    12    25    1
    27    12    26    1
    28    12    27    1

