@<TRIPOS>MOLECULE
peptide
 15 14 0 0 0
SMALL
GASTEIGER

@<TRIPOS>ATOM
      1 C1          0.8917    0.0124    0.0470 C.3     0  0          -0.0326
      2 N1          2.3466    0.0400   -0.0068 N.am    0  0          -0.3481
      3 C2          3.1107   -0.5250    1.0981 C.3     0  0          -0.0326
      4 C3          3.0141    0.5870   -1.0763 C.2     0  0           0.1304
      5 O1          4.2378    0.5937   -1.0893 O.2     0  0          -0.3874
      6 C4          2.3144    1.1964   -2.2682 C.3     0  0           0.0143
      7 H1          0.5156   -0.4632    0.9770 H       0  0           0.0296
      8 H2          0.4913   -0.5715   -0.8090 H       0  0           0.0296
      9 H3          0.4912    1.0482    0.0192 H       0  0           0.0296
     10 H4          2.4573   -0.9337    1.8973 H       0  0           0.0296
     11 H5          3.7524    0.2597    1.5531 H       0  0           0.0296
     12 H6          3.7525   -1.3531    0.7284 H       0  0           0.0296
     13 H7          1.2101    1.1666   -2.2100 H       0  0           0.0416
     14 H8          2.6190    0.6528   -3.1871 H       0  0           0.0416
     15 H9          2.6189    2.2596   -2.3655 H       0  0           0.0416
@<TRIPOS>BOND
     1     1     2    1
     2     2     3    1
     3     2     4   am
     4     4     5    2
     5     4     6    1
     6     1     7    1
     7     1     8    1
     8     1     9    1
     9     3    10    1
    10     3    11    1
    11     3    12    1
    12     6    13    1
    13     6    14    1
    14     6    15    1

