@<TRIPOS>MOLECULE
*****
 11 11 0 0 0
SMALL
GASTEIGER

@<TRIPOS>ATOM
      1 C1         -1.3927   -0.0757   -0.0178 C.ar    0  0          -0.0873
      2 C2         -0.7564    1.1675    0.0050 C.ar    0  0          -0.0730
      3 C3          0.6397    1.2194    0.0441 C.ar    0  0          -0.0312
      4 N1          1.3639    0.0678    0.0596 N.ar    0  0          -0.3476
      5 C4          0.7634   -1.1528    0.0379 C.ar    0  0          -0.0312
      6 C5         -0.6305   -1.2462   -0.0013 C.ar    0  0          -0.0730
      7 H1         -2.4732   -0.1320   -0.0481 H       0  0           0.0430
      8 H2         -1.3378    2.0803   -0.0075 H       0  0           0.0495
      9 H3          1.1473    2.1746    0.0621 H       0  0           0.0735
     10 H4          1.3676   -2.0500    0.0511 H       0  0           0.0735
     11 H5         -1.1138   -2.2144   -0.0187 H       0  0           0.0495
@<TRIPOS>BOND
     1     1     2   ar
     2     2     3   ar
     3     3     4   ar
     4     4     5   ar
     5     5     6   ar
     6     1     6   ar
     7     1     7    1
     8     2     8    1
     9     3     9    1
    10     5    10    1
    11     6    11    1

