@<TRIPOS>MOLECULE
*****
 13 12 0 0 0
SMALL
GASTEIGER

@<TRIPOS>ATOM
      1 N1          1.0093    0.0785    0.0067 N.3     0  0          -0.3650
      2 C1          0.5075   -1.1405   -0.6439 C.3     0  0          -0.0401
      3 C2          0.5075    0.1678    1.3855 C.3     0  0          -0.0401
      4 C3          2.4790    0.0995   -0.0069 C.3     0  0          -0.0401
      5 H1         -0.6035   -1.1321   -0.6661 H       0  0           0.0539
      6 H2          0.8513   -2.0560   -0.1123 H       0  0           0.0539
      7 H3          0.8574   -1.1828   -1.6979 H       0  0           0.0539
      8 H4         -0.6035    0.1915    1.3871 H       0  0           0.0539
      9 H5          0.8574    1.1104    1.8591 H       0  0           0.0539
     10 H6          0.8513   -0.6943    1.9999 H       0  0           0.0539
     11 H7          2.8520    0.0718   -1.0534 H       0  0           0.0539
     12 H8          2.9032   -0.7654    0.5507 H       0  0           0.0539
     13 H9          2.8520    1.0412    0.4504 H       0  0           0.0539
@<TRIPOS>BOND
     1     1     2    1
     2     1     3    1
     3     1     4    1
     4     2     5    1
     5     2     6    1
     6     2     7    1
     7     3     8    1
     8     3     9    1
     9     3    10    1
    10     4    11    1
    11     4    12    1
    12     4    13    1

