@<TRIPOS>MOLECULE
*****
 3 2 0 0 0
SMALL
GASTEIGER

@<TRIPOS>ATOM
      1 O1          1.0009    0.0242   -0.0904 O.3     0  0          -0.5270
      2 H1          1.9903    0.0598   -0.1144 H       0  0           0.0583
      3 H2          0.7116    0.8093   -0.6200 H       0  0           0.0583
@<TRIPOS>BOND
     1     1     2    1
     2     1     3    1

