
     RDKit          3D

 73 76  0  0  0  0  0  0  0  0999 V2000
   -0.7941   -3.2619   -4.1734 C   0  0  0  0  0  0  0  0  0  0  0  0
   -1.2977   -4.0749   -3.1533 C   0  0  0  0  0  0  0  0  0  0  0  0
   -1.9226   -3.5002   -2.0414 C   0  0  0  0  0  0  0  0  0  0  0  0
   -2.0387   -2.1026   -1.9363 C   0  0  0  0  0  0  0  0  0  0  0  0
   -1.5458   -1.2942   -2.9769 C   0  0  0  0  0  0  0  0  0  0  0  0
   -0.9233   -1.8731   -4.0878 C   0  0  0  0  0  0  0  0  0  0  0  0
   -2.6588   -1.4802   -0.7061 C   0  0  0  0  0  0  0  0  0  0  0  0
   -1.8038   -1.7333    0.5686 C   0  0  2  0  0  0  0  0  0  0  0  0
   -2.2994   -1.0143    1.8794 C   0  0  1  0  0  0  0  0  0  0  0  0
   -2.3245    0.5013    1.7276 C   0  0  0  0  0  0  0  0  0  0  0  0
   -1.3190    1.1798    2.0780 O   0  0  0  0  0  0  0  0  0  0  0  0
   -3.4624    1.1770    1.1631 N   0  0  0  0  0  0  0  0  0  0  0  0
   -3.4681    2.6174    0.9160 C   0  0  0  0  0  0  0  0  0  0  0  0
   -2.6240    2.9405   -0.2811 C   0  0  0  0  0  0  0  0  0  0  0  0
   -1.4294    3.6667   -0.1512 C   0  0  0  0  0  0  0  0  0  0  0  0
   -0.6654    3.9343   -1.2908 C   0  0  0  0  0  0  0  0  0  0  0  0
   -1.0907    3.4759   -2.5386 C   0  0  0  0  0  0  0  0  0  0  0  0
   -2.2816    2.7535   -2.6286 C   0  0  0  0  0  0  0  0  0  0  0  0
   -3.0159    2.5052   -1.5108 N   0  0  0  0  0  0  0  0  0  0  0  0
   -3.5757   -1.4603    2.2813 O   0  0  0  0  0  0  0  0  0  0  0  0
   -1.1426   -1.4278    3.2638 S   0  0  0  0  0  0  0  0  0  0  0  0
   -1.6146   -3.1773    3.5499 C   0  0  0  0  0  0  0  0  0  0  0  0
   -0.3832   -4.0673    3.4587 C   0  0  0  0  0  0  0  0  0  0  0  0
   -0.3710   -1.4840    0.3255 N   0  0  0  0  0  0  0  0  0  0  0  0
    0.1841   -0.2868   -0.2428 C   0  0  0  0  0  0  0  0  0  0  0  0
   -0.5671    0.6425   -0.6398 O   0  0  0  0  0  0  0  0  0  0  0  0
    1.6698   -0.1776   -0.4483 C   0  0  1  0  0  0  0  0  0  0  0  0
    2.1026   -0.9109   -1.7406 C   0  0  0  0  0  0  0  0  0  0  0  0
    2.4383    0.1696   -2.7808 C   0  0  0  0  0  0  0  0  0  0  0  0
    2.5048    1.4025   -1.9711 C   0  0  0  0  0  0  0  0  0  0  0  0
    2.8963    2.5140   -2.4189 O   0  0  0  0  0  0  0  0  0  0  0  0
    2.0600    1.2136   -0.6406 N   0  0  0  0  0  0  0  0  0  0  0  0
    2.1172    2.2181    0.4222 C   0  0  0  0  0  0  0  0  0  0  0  0
    3.3864    2.0603    1.2106 C   0  0  0  0  0  0  0  0  0  0  0  0
    3.4086    1.2653    2.3685 C   0  0  0  0  0  0  0  0  0  0  0  0
    4.6006    1.0889    3.0775 C   0  0  0  0  0  0  0  0  0  0  0  0
    5.7778    1.6981    2.6327 C   0  0  0  0  0  0  0  0  0  0  0  0
    5.7648    2.4813    1.4759 C   0  0  0  0  0  0  0  0  0  0  0  0
    4.5753    2.6588    0.7629 C   0  0  0  0  0  0  0  0  0  0  0  0
   -0.3056   -3.7085   -5.0302 H   0  0  0  0  0  0  0  0  0  0  0  0
   -1.2019   -5.1514   -3.2235 H   0  0  0  0  0  0  0  0  0  0  0  0
   -2.3063   -4.1428   -1.2592 H   0  0  0  0  0  0  0  0  0  0  0  0
   -1.6271   -0.2161   -2.9253 H   0  0  0  0  0  0  0  0  0  0  0  0
   -0.5325   -1.2432   -4.8772 H   0  0  0  0  0  0  0  0  0  0  0  0
   -3.6657   -1.9300   -0.5849 H   0  0  0  0  0  0  0  0  0  0  0  0
   -2.8196   -0.3960   -0.8677 H   0  0  0  0  0  0  0  0  0  0  0  0
   -1.9038   -2.8218    0.7617 H   0  0  0  0  0  0  0  0  0  0  0  0
   -4.3135    0.6378    0.8949 H   0  0  0  0  0  0  0  0  0  0  0  0
   -4.5088    2.9499    0.7135 H   0  0  0  0  0  0  0  0  0  0  0  0
   -3.1210    3.1589    1.8239 H   0  0  0  0  0  0  0  0  0  0  0  0
   -1.0899    4.0139    0.8171 H   0  0  0  0  0  0  0  0  0  0  0  0
    0.2547    4.4979   -1.2060 H   0  0  0  0  0  0  0  0  0  0  0  0
   -0.5033    3.6789   -3.4264 H   0  0  0  0  0  0  0  0  0  0  0  0
   -2.6247    2.3925   -3.5882 H   0  0  0  0  0  0  0  0  0  0  0  0
   -4.1786   -1.4981    1.4998 H   0  0  0  0  0  0  0  0  0  0  0  0
   -2.0470   -3.2611    4.5699 H   0  0  0  0  0  0  0  0  0  0  0  0
   -2.3768   -3.5437    2.8342 H   0  0  0  0  0  0  0  0  0  0  0  0
    0.3279   -3.8104    4.2703 H   0  0  0  0  0  0  0  0  0  0  0  0
   -0.6820   -5.1302    3.5699 H   0  0  0  0  0  0  0  0  0  0  0  0
    0.1190   -3.9345    2.4790 H   0  0  0  0  0  0  0  0  0  0  0  0
    0.2898   -2.2690    0.5267 H   0  0  0  0  0  0  0  0  0  0  0  0
    2.2005   -0.6040    0.4297 H   0  0  0  0  0  0  0  0  0  0  0  0
    1.3234   -1.6045   -2.1260 H   0  0  0  0  0  0  0  0  0  0  0  0
    3.0176   -1.5082   -1.5308 H   0  0  0  0  0  0  0  0  0  0  0  0
    3.4109   -0.0355   -3.2792 H   0  0  0  0  0  0  0  0  0  0  0  0
    1.6224    0.2597   -3.5312 H   0  0  0  0  0  0  0  0  0  0  0  0
    1.2334    2.1093    1.0873 H   0  0  0  0  0  0  0  0  0  0  0  0
    2.0652    3.2388   -0.0143 H   0  0  0  0  0  0  0  0  0  0  0  0
    2.5047    0.7827    2.7199 H   0  0  0  0  0  0  0  0  0  0  0  0
    4.6129    0.4788    3.9707 H   0  0  0  0  0  0  0  0  0  0  0  0
    6.6999    1.5618    3.1831 H   0  0  0  0  0  0  0  0  0  0  0  0
    6.6781    2.9482    1.1301 H   0  0  0  0  0  0  0  0  0  0  0  0
    4.5804    3.2622   -0.1359 H   0  0  0  0  0  0  0  0  0  0  0  0
  1  2  2  0
  2  3  1  0
  3  4  2  0
  4  5  1  0
  5  6  2  0
  4  7  1  0
  7  8  1  0
  8  9  1  0
  9 10  1  0
 10 11  2  0
 10 12  1  0
 12 13  1  0
 13 14  1  0
 14 15  2  0
 15 16  1  0
 16 17  2  0
 17 18  1  0
 18 19  2  0
  9 20  1  1
  9 21  1  0
 21 22  1  0
 22 23  1  0
  8 24  1  0
 24 25  1  0
 25 26  2  0
 25 27  1  0
 27 28  1  0
 28 29  1  0
 29 30  1  0
 30 31  2  0
 30 32  1  0
 32 33  1  0
 33 34  1  0
 34 35  2  0
 35 36  1  0
 36 37  2  0
 37 38  1  0
 38 39  2  0
  6  1  1  0
 19 14  1  0
 32 27  1  0
 39 34  1  0
  1 40  1  0
  2 41  1  0
  3 42  1  0
  5 43  1  0
  6 44  1  0
  7 45  1  0
  7 46  1  0
  8 47  1  1
 12 48  1  0
 13 49  1  0
 13 50  1  0
 15 51  1  0
 16 52  1  0
 17 53  1  0
 18 54  1  0
 20 55  1  0
 22 56  1  0
 22 57  1  0
 23 58  1  0
 23 59  1  0
 23 60  1  0
 24 61  1  0
 27 62  1  1
 28 63  1  0
 28 64  1  0
 29 65  1  0
 29 66  1  0
 33 67  1  0
 33 68  1  0
 35 69  1  0
 36 70  1  0
 37 71  1  0
 38 72  1  0
 39 73  1  0
M  END
